
This linearized model file was generated by FAST (v6.02c-jmj, 02-Feb-2007) on 27-Sep-2007 at 15:39:45.
The aerodynamic calculations were made by AeroDyn (12.58, 28-Jun-2005).

 FAST Model: CART 3-blades, Operating Point #1, with Region 2.5


Some Useful Information:

   Type of steady state solution found                Trimmed collective blade pitch (TrimCase = 3)
   Azimuth-average rotor speed, RotSpeed      (rad/s)    4.36681E+00
   Period of steady state solution              (sec)    1.43885E+00
   Iterations needed to find steady state solution      34
   Displacement 2-norm of steady state solution (rad)    1.86006E-05
   Velocity 2-norm of steady state solution   (rad/s)    1.02082E-04
   Number of equally-speced azimuth steps, NAzimStep    36
   Order of linearized model, MdlOrder                   1
   Number of active (enabled) DOFs                       5 (10 states)
   Number of control inputs, NInputs                     1
   Number of input wind disturbances, NDisturbs          1
   Number of output measurements                         1


Order of States in Linearized State Matrices:

   Row/column  1 = Variable speed generator DOF (internal DOF index = DOF_GeAz)
   Row/column  2 = Drivetrain rotational-flexibility DOF (internal DOF index = DOF_DrTr)
   Row/column  3 = 1st flapwise bending-mode DOF of blade 1 (internal DOF index = DOF_BF(1,1))
   Row/column  4 = 1st flapwise bending-mode DOF of blade 2 (internal DOF index = DOF_BF(2,1))
   Row/column  5 = 1st flapwise bending-mode DOF of blade 3 (internal DOF index = DOF_BF(3,1))
   Row/column  6 to 10 = First derivatives of row/column  1 to  5.


Order of Control Inputs in Linearized State Matrices:

   Column 1 = rotor collective blade pitch      (rad)    2.19664E-01 op


Order of Input Wind Disturbances in Linearized State Matrices:

   Column 1 = horizontal hub-height wind speed  (m/s)    1.80000E+01 op


Order of Output Measurements in Linearized State Matrices:

   Row   1 = HSShftV    (rpm)     


Linearized State Matrices:

--------- Azimuth =   0.00 deg (with respect to AzimB1Up =   0.00 deg) ---------
op State  	|	op        	|	A - State 	          	          	          	          	          	          	          	          	          	|	B - Input 	|	Bd - Dstrb
Derivativs	|	States    	|	Matrix    	          	          	          	          	          	          	          	          	          	|	Matrix    	|	Matrix    
 4.367E+00	|	 4.703E+00	|	 0.000E+00	 0.000E+00	 0.000E+00	 0.000E+00	 0.000E+00	 1.000E+00	 0.000E+00	 0.000E+00	 0.000E+00	 0.000E+00	|	 0.000E+00	|	 0.000E+00
 2.647E-06	|	 9.834E-03	|	 0.000E+00	 0.000E+00	 0.000E+00	 0.000E+00	 0.000E+00	 0.000E+00	 1.000E+00	 0.000E+00	 0.000E+00	 0.000E+00	|	 0.000E+00	|	 0.000E+00
 1.260E-01	|	 1.291E-01	|	 0.000E+00	 0.000E+00	 0.000E+00	 0.000E+00	 0.000E+00	 0.000E+00	 0.000E+00	 1.000E+00	 0.000E+00	 0.000E+00	|	 0.000E+00	|	 0.000E+00
-4.443E-02	|	 1.607E-01	|	 0.000E+00	 0.000E+00	 0.000E+00	 0.000E+00	 0.000E+00	 0.000E+00	 0.000E+00	 0.000E+00	 1.000E+00	 0.000E+00	|	 0.000E+00	|	 0.000E+00
-8.141E-02	|	 1.112E-01	|	 0.000E+00	 0.000E+00	 0.000E+00	 0.000E+00	 0.000E+00	 0.000E+00	 0.000E+00	 0.000E+00	 0.000E+00	 1.000E+00	|	 0.000E+00	|	 0.000E+00
 1.040E-04	|	 4.367E+00	|	-4.304E-08	 2.452E+02	 1.579E+00	 1.913E-07	-6.296E-08	 2.470E-08	 9.901E-09	-2.241E-08	-4.713E-08	-8.779E-09	|	 1.546E-06	|	-5.530E-09
-6.246E-05	|	 2.647E-06	|	 1.019E-04	-2.807E+02	-6.166E-01	 9.625E-01	 9.625E-01	 8.182E-03	 8.184E-03	 6.336E-03	 6.803E-03	 5.953E-03	|	 2.310E+00	|	 1.112E-03
 8.046E-02	|	 1.260E-01	|	 6.405E+00	 4.160E+02	-2.502E+02	-1.111E+01	-1.112E+01	-2.048E+01	-2.049E+01	-4.301E+00	-7.808E-02	-6.964E-02	|	-5.579E+02	|	 7.804E+00
-5.074E-01	|	-4.443E-02	|	-2.764E+00	 4.069E+02	-1.111E+01	-2.506E+02	-1.112E+01	-2.175E+01	-2.175E+01	-6.558E-02	-4.482E+00	-6.624E-02	|	-5.723E+02	|	 8.013E+00
 4.287E-01	|	-8.141E-02	|	-3.674E+00	 4.060E+02	-1.111E+01	-1.112E+01	-2.506E+02	-1.978E+01	-1.977E+01	-6.517E-02	-7.741E-02	-4.349E+00	|	-5.726E+02	|	 8.000E+00

op Output 	|	This colmn	|	C - Output	          	          	          	          	          	          	          	          	          	|	D - Trnsmt	|	Dd - DTsmt
Measurmnts	|	is blank  	|	Matrix    	          	          	          	          	          	          	          	          	          	|	Matrix    	|	Matrix    
 1.800E+03	|	          	|	 0.000E+00	 0.000E+00	 0.000E+00	 0.000E+00	 0.000E+00	 4.122E+02	 0.000E+00	 0.000E+00	 0.000E+00	 0.000E+00	|	 0.000E+00	|	 0.000E+00


--------- Azimuth =  10.00 deg (with respect to AzimB1Up =   0.00 deg) ---------
op State  	|	op        	|	A - State 	          	          	          	          	          	          	          	          	          	|	B - Input 	|	Bd - Dstrb
Derivativs	|	States    	|	Matrix    	          	          	          	          	          	          	          	          	          	|	Matrix    	|	Matrix    
 4.367E+00	|	 4.877E+00	|	 0.000E+00	 0.000E+00	 0.000E+00	 0.000E+00	 0.000E+00	 1.000E+00	 0.000E+00	 0.000E+00	 0.000E+00	 0.000E+00	|	 0.000E+00	|	 0.000E+00
-1.091E-07	|	 9.834E-03	|	 0.000E+00	 0.000E+00	 0.000E+00	 0.000E+00	 0.000E+00	 0.000E+00	 1.000E+00	 0.000E+00	 0.000E+00	 0.000E+00	|	 0.000E+00	|	 0.000E+00
 1.272E-01	|	 1.342E-01	|	 0.000E+00	 0.000E+00	 0.000E+00	 0.000E+00	 0.000E+00	 0.000E+00	 0.000E+00	 1.000E+00	 0.000E+00	 0.000E+00	|	 0.000E+00	|	 0.000E+00
-6.397E-02	|	 1.585E-01	|	 0.000E+00	 0.000E+00	 0.000E+00	 0.000E+00	 0.000E+00	 0.000E+00	 0.000E+00	 0.000E+00	 1.000E+00	 0.000E+00	|	 0.000E+00	|	 0.000E+00
-6.308E-02	|	 1.083E-01	|	 0.000E+00	 0.000E+00	 0.000E+00	 0.000E+00	 0.000E+00	 0.000E+00	 0.000E+00	 0.000E+00	 0.000E+00	 1.000E+00	|	 0.000E+00	|	 0.000E+00
 1.167E-04	|	 4.367E+00	|	-1.834E-08	 2.452E+02	 1.579E+00	-1.013E-07	 1.904E-07	-1.069E-07	-4.377E-08	 2.946E-08	 2.114E-08	-1.456E-08	|	 1.187E-06	|	-3.063E-08
-6.994E-05	|	-1.091E-07	|	 1.131E-04	-2.807E+02	-6.166E-01	 9.625E-01	 9.625E-01	 8.108E-03	 8.110E-03	 6.429E-03	 6.758E-03	 5.908E-03	|	 2.310E+00	|	 1.110E-03
-1.866E-02	|	 1.272E-01	|	 6.381E+00	 4.160E+02	-2.502E+02	-1.111E+01	-1.112E+01	-2.068E+01	-2.069E+01	-4.313E+00	-7.740E-02	-6.887E-02	|	-5.580E+02	|	 7.809E+00
-4.676E-01	|	-6.397E-02	|	-3.715E+00	 4.059E+02	-1.111E+01	-2.506E+02	-1.112E+01	-2.167E+01	-2.167E+01	-6.499E-02	-4.488E+00	-6.537E-02	|	-5.737E+02	|	 8.035E+00
 4.863E-01	|	-6.308E-02	|	-2.696E+00	 4.069E+02	-1.112E+01	-1.112E+01	-2.505E+02	-1.966E+01	-1.966E+01	-6.819E-02	-7.701E-02	-4.331E+00	|	-5.711E+02	|	 7.978E+00

op Output 	|	This colmn	|	C - Output	          	          	          	          	          	          	          	          	          	|	D - Trnsmt	|	Dd - DTsmt
Measurmnts	|	is blank  	|	Matrix    	          	          	          	          	          	          	          	          	          	|	Matrix    	|	Matrix    
 1.800E+03	|	          	|	 0.000E+00	 0.000E+00	 0.000E+00	 0.000E+00	 0.000E+00	 4.122E+02	 0.000E+00	 0.000E+00	 0.000E+00	 0.000E+00	|	 0.000E+00	|	 0.000E+00


--------- Azimuth =  20.00 deg (with respect to AzimB1Up =   0.00 deg) ---------
op State  	|	op        	|	A - State 	          	          	          	          	          	          	          	          	          	|	B - Input 	|	Bd - Dstrb
Derivativs	|	States    	|	Matrix    	          	          	          	          	          	          	          	          	          	|	Matrix    	|	Matrix    
 4.367E+00	|	 5.052E+00	|	 0.000E+00	 0.000E+00	 0.000E+00	 0.000E+00	 0.000E+00	 1.000E+00	 0.000E+00	 0.000E+00	 0.000E+00	 0.000E+00	|	 0.000E+00	|	 0.000E+00
-2.529E-06	|	 9.834E-03	|	 0.000E+00	 0.000E+00	 0.000E+00	 0.000E+00	 0.000E+00	 0.000E+00	 1.000E+00	 0.000E+00	 0.000E+00	 0.000E+00	|	 0.000E+00	|	 0.000E+00
 1.245E-01	|	 1.392E-01	|	 0.000E+00	 0.000E+00	 0.000E+00	 0.000E+00	 0.000E+00	 0.000E+00	 0.000E+00	 1.000E+00	 0.000E+00	 0.000E+00	|	 0.000E+00	|	 0.000E+00
-8.164E-02	|	 1.556E-01	|	 0.000E+00	 0.000E+00	 0.000E+00	 0.000E+00	 0.000E+00	 0.000E+00	 0.000E+00	 0.000E+00	 1.000E+00	 0.000E+00	|	 0.000E+00	|	 0.000E+00
-4.275E-02	|	 1.062E-01	|	 0.000E+00	 0.000E+00	 0.000E+00	 0.000E+00	 0.000E+00	 0.000E+00	 0.000E+00	 0.000E+00	 0.000E+00	 1.000E+00	|	 0.000E+00	|	 0.000E+00
 1.031E-04	|	 4.367E+00	|	-2.501E-08	 2.452E+02	 1.579E+00	 1.162E-07	 2.680E-08	-8.890E-08	-1.048E-07	-2.022E-08	-1.791E-08	 2.322E-08	|	-1.376E-06	|	-4.802E-09
-4.709E-05	|	-2.529E-06	|	 1.128E-04	-2.807E+02	-6.166E-01	 9.625E-01	 9.625E-01	 8.142E-03	 8.140E-03	 6.515E-03	 6.699E-03	 5.875E-03	|	 2.310E+00	|	 1.096E-03
-1.156E-01	|	 1.245E-01	|	 6.160E+00	 4.158E+02	-2.502E+02	-1.111E+01	-1.111E+01	-2.088E+01	-2.089E+01	-4.328E+00	-7.653E-02	-6.864E-02	|	-5.583E+02	|	 7.813E+00
-4.144E-01	|	-8.164E-02	|	-4.556E+00	 4.051E+02	-1.111E+01	-2.506E+02	-1.112E+01	-2.155E+01	-2.154E+01	-6.455E-02	-4.489E+00	-6.490E-02	|	-5.748E+02	|	 8.052E+00
 5.287E-01	|	-4.275E-02	|	-1.632E+00	 4.080E+02	-1.112E+01	-1.112E+01	-2.505E+02	-1.958E+01	-1.958E+01	-7.135E-02	-7.673E-02	-4.313E+00	|	-5.696E+02	|	 7.955E+00

op Output 	|	This colmn	|	C - Output	          	          	          	          	          	          	          	          	          	|	D - Trnsmt	|	Dd - DTsmt
Measurmnts	|	is blank  	|	Matrix    	          	          	          	          	          	          	          	          	          	|	Matrix    	|	Matrix    
 1.800E+03	|	          	|	 0.000E+00	 0.000E+00	 0.000E+00	 0.000E+00	 0.000E+00	 4.122E+02	 0.000E+00	 0.000E+00	 0.000E+00	 0.000E+00	|	 0.000E+00	|	 0.000E+00


--------- Azimuth =  30.00 deg (with respect to AzimB1Up =   0.00 deg) ---------
op State  	|	op        	|	A - State 	          	          	          	          	          	          	          	          	          	|	B - Input 	|	Bd - Dstrb
Derivativs	|	States    	|	Matrix    	          	          	          	          	          	          	          	          	          	|	Matrix    	|	Matrix    
 4.367E+00	|	 5.226E+00	|	 0.000E+00	 0.000E+00	 0.000E+00	 0.000E+00	 0.000E+00	 1.000E+00	 0.000E+00	 0.000E+00	 0.000E+00	 0.000E+00	|	 0.000E+00	|	 0.000E+00
-3.608E-06	|	 9.834E-03	|	 0.000E+00	 0.000E+00	 0.000E+00	 0.000E+00	 0.000E+00	 0.000E+00	 1.000E+00	 0.000E+00	 0.000E+00	 0.000E+00	|	 0.000E+00	|	 0.000E+00
 1.180E-01	|	 1.441E-01	|	 0.000E+00	 0.000E+00	 0.000E+00	 0.000E+00	 0.000E+00	 0.000E+00	 0.000E+00	 1.000E+00	 0.000E+00	 0.000E+00	|	 0.000E+00	|	 0.000E+00
-9.692E-02	|	 1.520E-01	|	 0.000E+00	 0.000E+00	 0.000E+00	 0.000E+00	 0.000E+00	 0.000E+00	 0.000E+00	 0.000E+00	 1.000E+00	 0.000E+00	|	 0.000E+00	|	 0.000E+00
-2.104E-02	|	 1.049E-01	|	 0.000E+00	 0.000E+00	 0.000E+00	 0.000E+00	 0.000E+00	 0.000E+00	 0.000E+00	 0.000E+00	 0.000E+00	 1.000E+00	|	 0.000E+00	|	 0.000E+00
 7.182E-05	|	 4.367E+00	|	-6.410E-08	 2.452E+02	 1.579E+00	 3.058E-07	-1.375E-08	-3.773E-08	-7.900E-08	-1.548E-08	 1.259E-08	 3.697E-08	|	 8.859E-08	|	-4.366E-10
-5.442E-06	|	-3.608E-06	|	 1.188E-04	-2.807E+02	-6.165E-01	 9.626E-01	 9.624E-01	 8.250E-03	 8.248E-03	 6.593E-03	 6.636E-03	 5.879E-03	|	 2.310E+00	|	 1.079E-03
-2.076E-01	|	 1.180E-01	|	 5.753E+00	 4.154E+02	-2.502E+02	-1.111E+01	-1.111E+01	-2.106E+01	-2.107E+01	-4.345E+00	-7.590E-02	-6.844E-02	|	-5.590E+02	|	 7.822E+00
-3.489E-01	|	-9.692E-02	|	-5.264E+00	 4.044E+02	-1.111E+01	-2.507E+02	-1.112E+01	-2.140E+01	-2.139E+01	-6.403E-02	-4.487E+00	-6.474E-02	|	-5.758E+02	|	 8.062E+00
 5.546E-01	|	-2.104E-02	|	-5.144E-01	 4.091E+02	-1.111E+01	-1.112E+01	-2.504E+02	-1.954E+01	-1.954E+01	-7.423E-02	-7.615E-02	-4.297E+00	|	-5.680E+02	|	 7.931E+00

op Output 	|	This colmn	|	C - Output	          	          	          	          	          	          	          	          	          	|	D - Trnsmt	|	Dd - DTsmt
Measurmnts	|	is blank  	|	Matrix    	          	          	          	          	          	          	          	          	          	|	Matrix    	|	Matrix    
 1.800E+03	|	          	|	 0.000E+00	 0.000E+00	 0.000E+00	 0.000E+00	 0.000E+00	 4.122E+02	 0.000E+00	 0.000E+00	 0.000E+00	 0.000E+00	|	 0.000E+00	|	 0.000E+00


--------- Azimuth =  40.00 deg (with respect to AzimB1Up =   0.00 deg) ---------
op State  	|	op        	|	A - State 	          	          	          	          	          	          	          	          	          	|	B - Input 	|	Bd - Dstrb
Derivativs	|	States    	|	Matrix    	          	          	          	          	          	          	          	          	          	|	Matrix    	|	Matrix    
 4.367E+00	|	 5.401E+00	|	 0.000E+00	 0.000E+00	 0.000E+00	 0.000E+00	 0.000E+00	 1.000E+00	 0.000E+00	 0.000E+00	 0.000E+00	 0.000E+00	|	 0.000E+00	|	 0.000E+00
-2.958E-06	|	 9.834E-03	|	 0.000E+00	 0.000E+00	 0.000E+00	 0.000E+00	 0.000E+00	 0.000E+00	 1.000E+00	 0.000E+00	 0.000E+00	 0.000E+00	|	 0.000E+00	|	 0.000E+00
 1.080E-01	|	 1.486E-01	|	 0.000E+00	 0.000E+00	 0.000E+00	 0.000E+00	 0.000E+00	 0.000E+00	 0.000E+00	 1.000E+00	 0.000E+00	 0.000E+00	|	 0.000E+00	|	 0.000E+00
-1.094E-01	|	 1.479E-01	|	 0.000E+00	 0.000E+00	 0.000E+00	 0.000E+00	 0.000E+00	 0.000E+00	 0.000E+00	 0.000E+00	 1.000E+00	 0.000E+00	|	 0.000E+00	|	 0.000E+00
 1.359E-03	|	 1.045E-01	|	 0.000E+00	 0.000E+00	 0.000E+00	 0.000E+00	 0.000E+00	 0.000E+00	 0.000E+00	 0.000E+00	 0.000E+00	 1.000E+00	|	 0.000E+00	|	 0.000E+00
 3.841E-05	|	 4.367E+00	|	-1.527E-08	 2.452E+02	 1.579E+00	-4.904E-08	 3.507E-07	-2.772E-08	 5.498E-08	 2.414E-08	 4.274E-08	-3.009E-08	|	 3.142E-07	|	-8.076E-08
 3.600E-05	|	-2.958E-06	|	 1.206E-04	-2.807E+02	-6.165E-01	 9.626E-01	 9.624E-01	 8.339E-03	 8.342E-03	 6.671E-03	 6.571E-03	 5.885E-03	|	 2.310E+00	|	 1.051E-03
-2.920E-01	|	 1.080E-01	|	 5.172E+00	 4.148E+02	-2.502E+02	-1.111E+01	-1.111E+01	-2.124E+01	-2.125E+01	-4.363E+00	-7.495E-02	-6.850E-02	|	-5.598E+02	|	 7.835E+00
-2.738E-01	|	-1.094E-01	|	-5.821E+00	 4.038E+02	-1.112E+01	-2.507E+02	-1.112E+01	-2.123E+01	-2.122E+01	-6.409E-02	-4.477E+00	-6.476E-02	|	-5.764E+02	|	 8.068E+00
 5.632E-01	|	 1.359E-03	|	 6.181E-01	 4.103E+02	-1.111E+01	-1.112E+01	-2.504E+02	-1.952E+01	-1.952E+01	-7.737E-02	-7.554E-02	-4.283E+00	|	-5.664E+02	|	 7.908E+00

op Output 	|	This colmn	|	C - Output	          	          	          	          	          	          	          	          	          	|	D - Trnsmt	|	Dd - DTsmt
Measurmnts	|	is blank  	|	Matrix    	          	          	          	          	          	          	          	          	          	|	Matrix    	|	Matrix    
 1.800E+03	|	          	|	 0.000E+00	 0.000E+00	 0.000E+00	 0.000E+00	 0.000E+00	 4.122E+02	 0.000E+00	 0.000E+00	 0.000E+00	 0.000E+00	|	 0.000E+00	|	 0.000E+00


--------- Azimuth =  50.00 deg (with respect to AzimB1Up =   0.00 deg) ---------
op State  	|	op        	|	A - State 	          	          	          	          	          	          	          	          	          	|	B - Input 	|	Bd - Dstrb
Derivativs	|	States    	|	Matrix    	          	          	          	          	          	          	          	          	          	|	Matrix    	|	Matrix    
 4.367E+00	|	 5.575E+00	|	 0.000E+00	 0.000E+00	 0.000E+00	 0.000E+00	 0.000E+00	 1.000E+00	 0.000E+00	 0.000E+00	 0.000E+00	 0.000E+00	|	 0.000E+00	|	 0.000E+00
-1.019E-06	|	 9.834E-03	|	 0.000E+00	 0.000E+00	 0.000E+00	 0.000E+00	 0.000E+00	 0.000E+00	 1.000E+00	 0.000E+00	 0.000E+00	 0.000E+00	|	 0.000E+00	|	 0.000E+00
 9.482E-02	|	 1.527E-01	|	 0.000E+00	 0.000E+00	 0.000E+00	 0.000E+00	 0.000E+00	 0.000E+00	 0.000E+00	 1.000E+00	 0.000E+00	 0.000E+00	|	 0.000E+00	|	 0.000E+00
-1.187E-01	|	 1.433E-01	|	 0.000E+00	 0.000E+00	 0.000E+00	 0.000E+00	 0.000E+00	 0.000E+00	 0.000E+00	 0.000E+00	 1.000E+00	 0.000E+00	|	 0.000E+00	|	 0.000E+00
 2.375E-02	|	 1.050E-01	|	 0.000E+00	 0.000E+00	 0.000E+00	 0.000E+00	 0.000E+00	 0.000E+00	 0.000E+00	 0.000E+00	 0.000E+00	 1.000E+00	|	 0.000E+00	|	 0.000E+00
 1.819E-05	|	 4.367E+00	|	-2.949E-08	 2.452E+02	 1.579E+00	 1.670E-07	-1.589E-07	 5.730E-08	 4.878E-08	-1.305E-08	 4.621E-09	-5.256E-09	|	-6.748E-07	|	 9.786E-09
 5.611E-05	|	-1.019E-06	|	 9.646E-05	-2.807E+02	-6.165E-01	 9.626E-01	 9.623E-01	 8.439E-03	 8.441E-03	 6.738E-03	 6.523E-03	 5.900E-03	|	 2.311E+00	|	 1.018E-03
-3.665E-01	|	 9.482E-02	|	 4.438E+00	 4.141E+02	-2.503E+02	-1.112E+01	-1.111E+01	-2.140E+01	-2.141E+01	-4.381E+00	-7.435E-02	-6.864E-02	|	-5.609E+02	|	 7.851E+00
-1.896E-01	|	-1.187E-01	|	-6.200E+00	 4.034E+02	-1.112E+01	-2.507E+02	-1.112E+01	-2.103E+01	-2.103E+01	-6.417E-02	-4.469E+00	-6.484E-02	|	-5.768E+02	|	 8.072E+00
 5.542E-01	|	 2.375E-02	|	 1.733E+00	 4.114E+02	-1.111E+01	-1.112E+01	-2.503E+02	-1.954E+01	-1.954E+01	-8.001E-02	-7.529E-02	-4.272E+00	|	-5.647E+02	|	 7.886E+00

op Output 	|	This colmn	|	C - Output	          	          	          	          	          	          	          	          	          	|	D - Trnsmt	|	Dd - DTsmt
Measurmnts	|	is blank  	|	Matrix    	          	          	          	          	          	          	          	          	          	|	Matrix    	|	Matrix    
 1.800E+03	|	          	|	 0.000E+00	 0.000E+00	 0.000E+00	 0.000E+00	 0.000E+00	 4.122E+02	 0.000E+00	 0.000E+00	 0.000E+00	 0.000E+00	|	 0.000E+00	|	 0.000E+00


--------- Azimuth =  60.00 deg (with respect to AzimB1Up =   0.00 deg) ---------
op State  	|	op        	|	A - State 	          	          	          	          	          	          	          	          	          	|	B - Input 	|	Bd - Dstrb
Derivativs	|	States    	|	Matrix    	          	          	          	          	          	          	          	          	          	|	Matrix    	|	Matrix    
 4.367E+00	|	 5.750E+00	|	 0.000E+00	 0.000E+00	 0.000E+00	 0.000E+00	 0.000E+00	 1.000E+00	 0.000E+00	 0.000E+00	 0.000E+00	 0.000E+00	|	 0.000E+00	|	 0.000E+00
 1.141E-06	|	 9.834E-03	|	 0.000E+00	 0.000E+00	 0.000E+00	 0.000E+00	 0.000E+00	 0.000E+00	 1.000E+00	 0.000E+00	 0.000E+00	 0.000E+00	|	 0.000E+00	|	 0.000E+00
 7.887E-02	|	 1.562E-01	|	 0.000E+00	 0.000E+00	 0.000E+00	 0.000E+00	 0.000E+00	 0.000E+00	 0.000E+00	 1.000E+00	 0.000E+00	 0.000E+00	|	 0.000E+00	|	 0.000E+00
-1.245E-01	|	 1.384E-01	|	 0.000E+00	 0.000E+00	 0.000E+00	 0.000E+00	 0.000E+00	 0.000E+00	 0.000E+00	 0.000E+00	 1.000E+00	 0.000E+00	|	 0.000E+00	|	 0.000E+00
 4.542E-02	|	 1.064E-01	|	 0.000E+00	 0.000E+00	 0.000E+00	 0.000E+00	 0.000E+00	 0.000E+00	 0.000E+00	 0.000E+00	 0.000E+00	 1.000E+00	|	 0.000E+00	|	 0.000E+00
 1.903E-05	|	 4.367E+00	|	-1.910E-08	 2.452E+02	 1.579E+00	-1.415E-08	 1.617E-07	-6.493E-08	 2.952E-08	-2.027E-08	-3.188E-08	-1.204E-08	|	 6.000E-07	|	-3.871E-08
 4.760E-05	|	 1.141E-06	|	 9.466E-05	-2.807E+02	-6.164E-01	 9.626E-01	 9.623E-01	 8.569E-03	 8.568E-03	 6.798E-03	 6.436E-03	 5.929E-03	|	 2.311E+00	|	 9.958E-04
-4.294E-01	|	 7.887E-02	|	 3.571E+00	 4.132E+02	-2.503E+02	-1.112E+01	-1.111E+01	-2.154E+01	-2.155E+01	-4.400E+00	-7.304E-02	-6.867E-02	|	-5.623E+02	|	 7.871E+00
-9.864E-02	|	-1.245E-01	|	-6.394E+00	 4.032E+02	-1.112E+01	-2.507E+02	-1.111E+01	-2.085E+01	-2.084E+01	-6.467E-02	-4.457E+00	-6.517E-02	|	-5.769E+02	|	 8.075E+00
 5.275E-01	|	 4.542E-02	|	 2.793E+00	 4.124E+02	-1.111E+01	-1.112E+01	-2.503E+02	-1.959E+01	-1.960E+01	-8.280E-02	-7.465E-02	-4.264E+00	|	-5.632E+02	|	 7.865E+00

op Output 	|	This colmn	|	C - Output	          	          	          	          	          	          	          	          	          	|	D - Trnsmt	|	Dd - DTsmt
Measurmnts	|	is blank  	|	Matrix    	          	          	          	          	          	          	          	          	          	|	Matrix    	|	Matrix    
 1.800E+03	|	          	|	 0.000E+00	 0.000E+00	 0.000E+00	 0.000E+00	 0.000E+00	 4.122E+02	 0.000E+00	 0.000E+00	 0.000E+00	 0.000E+00	|	 0.000E+00	|	 0.000E+00


--------- Azimuth =  70.00 deg (with respect to AzimB1Up =   0.00 deg) ---------
op State  	|	op        	|	A - State 	          	          	          	          	          	          	          	          	          	|	B - Input 	|	Bd - Dstrb
Derivativs	|	States    	|	Matrix    	          	          	          	          	          	          	          	          	          	|	Matrix    	|	Matrix    
 4.367E+00	|	 5.924E+00	|	 0.000E+00	 0.000E+00	 0.000E+00	 0.000E+00	 0.000E+00	 1.000E+00	 0.000E+00	 0.000E+00	 0.000E+00	 0.000E+00	|	 0.000E+00	|	 0.000E+00
 2.500E-06	|	 9.834E-03	|	 0.000E+00	 0.000E+00	 0.000E+00	 0.000E+00	 0.000E+00	 0.000E+00	 1.000E+00	 0.000E+00	 0.000E+00	 0.000E+00	|	 0.000E+00	|	 0.000E+00
 6.067E-02	|	 1.590E-01	|	 0.000E+00	 0.000E+00	 0.000E+00	 0.000E+00	 0.000E+00	 0.000E+00	 0.000E+00	 1.000E+00	 0.000E+00	 0.000E+00	|	 0.000E+00	|	 0.000E+00
-1.265E-01	|	 1.334E-01	|	 0.000E+00	 0.000E+00	 0.000E+00	 0.000E+00	 0.000E+00	 0.000E+00	 0.000E+00	 0.000E+00	 1.000E+00	 0.000E+00	|	 0.000E+00	|	 0.000E+00
 6.569E-02	|	 1.086E-01	|	 0.000E+00	 0.000E+00	 0.000E+00	 0.000E+00	 0.000E+00	 0.000E+00	 0.000E+00	 0.000E+00	 0.000E+00	 1.000E+00	|	 0.000E+00	|	 0.000E+00
 3.776E-05	|	 4.367E+00	|	 3.846E-08	 2.452E+02	 1.579E+00	 1.825E-07	-2.686E-07	 1.683E-08	-2.501E-09	 3.928E-08	 4.447E-08	 2.593E-08	|	 9.286E-07	|	-5.346E-08
 1.889E-05	|	 2.500E-06	|	 1.581E-04	-2.807E+02	-6.164E-01	 9.626E-01	 9.623E-01	 8.572E-03	 8.574E-03	 6.844E-03	 6.329E-03	 5.974E-03	|	 2.311E+00	|	 9.835E-04
-4.796E-01	|	 6.067E-02	|	 2.599E+00	 4.122E+02	-2.504E+02	-1.112E+01	-1.111E+01	-2.166E+01	-2.166E+01	-4.417E+00	-7.151E-02	-6.894E-02	|	-5.638E+02	|	 7.892E+00
-3.491E-03	|	-1.265E-01	|	-6.395E+00	 4.032E+02	-1.112E+01	-2.507E+02	-1.111E+01	-2.065E+01	-2.064E+01	-6.540E-02	-4.443E+00	-6.574E-02	|	-5.768E+02	|	 8.073E+00
 4.840E-01	|	 6.569E-02	|	 3.766E+00	 4.134E+02	-1.111E+01	-1.112E+01	-2.503E+02	-1.968E+01	-1.968E+01	-8.471E-02	-7.368E-02	-4.260E+00	|	-5.617E+02	|	 7.846E+00

op Output 	|	This colmn	|	C - Output	          	          	          	          	          	          	          	          	          	|	D - Trnsmt	|	Dd - DTsmt
Measurmnts	|	is blank  	|	Matrix    	          	          	          	          	          	          	          	          	          	|	Matrix    	|	Matrix    
 1.800E+03	|	          	|	 0.000E+00	 0.000E+00	 0.000E+00	 0.000E+00	 0.000E+00	 4.122E+02	 0.000E+00	 0.000E+00	 0.000E+00	 0.000E+00	|	 0.000E+00	|	 0.000E+00


--------- Azimuth =  80.00 deg (with respect to AzimB1Up =   0.00 deg) ---------
op State  	|	op        	|	A - State 	          	          	          	          	          	          	          	          	          	|	B - Input 	|	Bd - Dstrb
Derivativs	|	States    	|	Matrix    	          	          	          	          	          	          	          	          	          	|	Matrix    	|	Matrix    
 4.367E+00	|	 6.099E+00	|	 0.000E+00	 0.000E+00	 0.000E+00	 0.000E+00	 0.000E+00	 1.000E+00	 0.000E+00	 0.000E+00	 0.000E+00	 0.000E+00	|	 0.000E+00	|	 0.000E+00
 2.684E-06	|	 9.834E-03	|	 0.000E+00	 0.000E+00	 0.000E+00	 0.000E+00	 0.000E+00	 0.000E+00	 1.000E+00	 0.000E+00	 0.000E+00	 0.000E+00	|	 0.000E+00	|	 0.000E+00
 4.073E-02	|	 1.610E-01	|	 0.000E+00	 0.000E+00	 0.000E+00	 0.000E+00	 0.000E+00	 0.000E+00	 0.000E+00	 1.000E+00	 0.000E+00	 0.000E+00	|	 0.000E+00	|	 0.000E+00
-1.247E-01	|	 1.284E-01	|	 0.000E+00	 0.000E+00	 0.000E+00	 0.000E+00	 0.000E+00	 0.000E+00	 0.000E+00	 0.000E+00	 1.000E+00	 0.000E+00	|	 0.000E+00	|	 0.000E+00
 8.391E-02	|	 1.116E-01	|	 0.000E+00	 0.000E+00	 0.000E+00	 0.000E+00	 0.000E+00	 0.000E+00	 0.000E+00	 0.000E+00	 0.000E+00	 1.000E+00	|	 0.000E+00	|	 0.000E+00
 6.416E-05	|	 4.367E+00	|	 1.699E-08	 2.452E+02	 1.579E+00	 6.862E-08	 3.234E-09	 6.472E-08	 8.838E-08	 1.929E-08	-2.218E-08	-1.733E-08	|	 8.473E-07	|	-3.893E-09
-1.161E-05	|	 2.684E-06	|	 1.174E-04	-2.807E+02	-6.164E-01	 9.626E-01	 9.622E-01	 8.479E-03	 8.478E-03	 6.877E-03	 6.233E-03	 6.028E-03	|	 2.311E+00	|	 1.006E-03
-5.159E-01	|	 4.073E-02	|	 1.552E+00	 4.112E+02	-2.504E+02	-1.112E+01	-1.111E+01	-2.174E+01	-2.174E+01	-4.434E+00	-7.006E-02	-6.932E-02	|	-5.655E+02	|	 7.916E+00
 9.277E-02	|	-1.247E-01	|	-6.203E+00	 4.034E+02	-1.112E+01	-2.507E+02	-1.111E+01	-2.045E+01	-2.044E+01	-6.602E-02	-4.427E+00	-6.637E-02	|	-5.765E+02	|	 8.066E+00
 4.249E-01	|	 8.391E-02	|	 4.622E+00	 4.143E+02	-1.111E+01	-1.112E+01	-2.502E+02	-1.979E+01	-1.980E+01	-8.659E-02	-7.253E-02	-4.259E+00	|	-5.604E+02	|	 7.830E+00

op Output 	|	This colmn	|	C - Output	          	          	          	          	          	          	          	          	          	|	D - Trnsmt	|	Dd - DTsmt
Measurmnts	|	is blank  	|	Matrix    	          	          	          	          	          	          	          	          	          	|	Matrix    	|	Matrix    
 1.800E+03	|	          	|	 0.000E+00	 0.000E+00	 0.000E+00	 0.000E+00	 0.000E+00	 4.122E+02	 0.000E+00	 0.000E+00	 0.000E+00	 0.000E+00	|	 0.000E+00	|	 0.000E+00


--------- Azimuth =  90.00 deg (with respect to AzimB1Up =   0.00 deg) ---------
op State  	|	op        	|	A - State 	          	          	          	          	          	          	          	          	          	|	B - Input 	|	Bd - Dstrb
Derivativs	|	States    	|	Matrix    	          	          	          	          	          	          	          	          	          	|	Matrix    	|	Matrix    
 4.367E+00	|	-9.834E-03	|	 0.000E+00	 0.000E+00	 0.000E+00	 0.000E+00	 0.000E+00	 1.000E+00	 0.000E+00	 0.000E+00	 0.000E+00	 0.000E+00	|	 0.000E+00	|	 0.000E+00
 1.627E-06	|	 9.834E-03	|	 0.000E+00	 0.000E+00	 0.000E+00	 0.000E+00	 0.000E+00	 0.000E+00	 1.000E+00	 0.000E+00	 0.000E+00	 0.000E+00	|	 0.000E+00	|	 0.000E+00
 1.963E-02	|	 1.622E-01	|	 0.000E+00	 0.000E+00	 0.000E+00	 0.000E+00	 0.000E+00	 0.000E+00	 0.000E+00	 1.000E+00	 0.000E+00	 0.000E+00	|	 0.000E+00	|	 0.000E+00
-1.191E-01	|	 1.235E-01	|	 0.000E+00	 0.000E+00	 0.000E+00	 0.000E+00	 0.000E+00	 0.000E+00	 0.000E+00	 0.000E+00	 1.000E+00	 0.000E+00	|	 0.000E+00	|	 0.000E+00
 9.947E-02	|	 1.153E-01	|	 0.000E+00	 0.000E+00	 0.000E+00	 0.000E+00	 0.000E+00	 0.000E+00	 0.000E+00	 0.000E+00	 0.000E+00	 1.000E+00	|	 0.000E+00	|	 0.000E+00
 8.627E-05	|	 4.367E+00	|	 2.856E-08	 2.452E+02	 1.579E+00	 2.031E-07	-1.983E-07	 2.053E-08	 4.523E-08	 2.946E-08	 3.789E-08	 3.466E-09	|	-5.784E-07	|	-1.433E-08
-3.890E-05	|	 1.627E-06	|	 8.858E-05	-2.807E+02	-6.164E-01	 9.626E-01	 9.622E-01	 8.329E-03	 8.327E-03	 6.895E-03	 6.150E-03	 6.071E-03	|	 2.311E+00	|	 1.049E-03
-5.372E-01	|	 1.963E-02	|	 4.563E-01	 4.101E+02	-2.504E+02	-1.112E+01	-1.111E+01	-2.179E+01	-2.179E+01	-4.448E+00	-6.906E-02	-6.952E-02	|	-5.672E+02	|	 7.940E+00
 1.871E-01	|	-1.191E-01	|	-5.821E+00	 4.038E+02	-1.112E+01	-2.507E+02	-1.112E+01	-2.026E+01	-2.025E+01	-6.720E-02	-4.409E+00	-6.706E-02	|	-5.758E+02	|	 8.053E+00
 3.522E-01	|	 9.947E-02	|	 5.333E+00	 4.150E+02	-1.111E+01	-1.112E+01	-2.502E+02	-1.993E+01	-1.993E+01	-8.779E-02	-7.177E-02	-4.261E+00	|	-5.594E+02	|	 7.816E+00

op Output 	|	This colmn	|	C - Output	          	          	          	          	          	          	          	          	          	|	D - Trnsmt	|	Dd - DTsmt
Measurmnts	|	is blank  	|	Matrix    	          	          	          	          	          	          	          	          	          	|	Matrix    	|	Matrix    
 1.800E+03	|	          	|	 0.000E+00	 0.000E+00	 0.000E+00	 0.000E+00	 0.000E+00	 4.122E+02	 0.000E+00	 0.000E+00	 0.000E+00	 0.000E+00	|	 0.000E+00	|	 0.000E+00


--------- Azimuth = 100.00 deg (with respect to AzimB1Up =   0.00 deg) ---------
op State  	|	op        	|	A - State 	          	          	          	          	          	          	          	          	          	|	B - Input 	|	Bd - Dstrb
Derivativs	|	States    	|	Matrix    	          	          	          	          	          	          	          	          	          	|	Matrix    	|	Matrix    
 4.367E+00	|	 1.647E-01	|	 0.000E+00	 0.000E+00	 0.000E+00	 0.000E+00	 0.000E+00	 1.000E+00	 0.000E+00	 0.000E+00	 0.000E+00	 0.000E+00	|	 0.000E+00	|	 0.000E+00
-2.524E-07	|	 9.834E-03	|	 0.000E+00	 0.000E+00	 0.000E+00	 0.000E+00	 0.000E+00	 0.000E+00	 1.000E+00	 0.000E+00	 0.000E+00	 0.000E+00	|	 0.000E+00	|	 0.000E+00
-2.011E-03	|	 1.626E-01	|	 0.000E+00	 0.000E+00	 0.000E+00	 0.000E+00	 0.000E+00	 0.000E+00	 0.000E+00	 1.000E+00	 0.000E+00	 0.000E+00	|	 0.000E+00	|	 0.000E+00
-1.098E-01	|	 1.189E-01	|	 0.000E+00	 0.000E+00	 0.000E+00	 0.000E+00	 0.000E+00	 0.000E+00	 0.000E+00	 0.000E+00	 1.000E+00	 0.000E+00	|	 0.000E+00	|	 0.000E+00
 1.119E-01	|	 1.195E-01	|	 0.000E+00	 0.000E+00	 0.000E+00	 0.000E+00	 0.000E+00	 0.000E+00	 0.000E+00	 0.000E+00	 0.000E+00	 1.000E+00	|	 0.000E+00	|	 0.000E+00
 9.356E-05	|	 4.367E+00	|	-6.670E-09	 2.452E+02	 1.579E+00	-1.585E-07	 3.697E-09	-2.585E-08	-1.358E-07	-3.962E-08	-1.906E-08	-5.579E-08	|	-1.081E-06	|	 1.219E-08
-5.096E-05	|	-2.524E-07	|	 9.268E-05	-2.807E+02	-6.164E-01	 9.626E-01	 9.622E-01	 8.336E-03	 8.334E-03	 6.898E-03	 6.073E-03	 6.127E-03	|	 2.311E+00	|	 1.061E-03
-5.431E-01	|	-2.011E-03	|	-6.472E-01	 4.090E+02	-2.505E+02	-1.112E+01	-1.111E+01	-2.181E+01	-2.181E+01	-4.460E+00	-6.802E-02	-6.992E-02	|	-5.690E+02	|	 7.965E+00
 2.762E-01	|	-1.098E-01	|	-5.263E+00	 4.044E+02	-1.112E+01	-2.506E+02	-1.111E+01	-2.008E+01	-2.007E+01	-6.860E-02	-4.389E+00	-6.783E-02	|	-5.749E+02	|	 8.038E+00
 2.685E-01	|	 1.119E-01	|	 5.879E+00	 4.155E+02	-1.111E+01	-1.112E+01	-2.502E+02	-2.009E+01	-2.010E+01	-8.863E-02	-7.110E-02	-4.266E+00	|	-5.586E+02	|	 7.806E+00

op Output 	|	This colmn	|	C - Output	          	          	          	          	          	          	          	          	          	|	D - Trnsmt	|	Dd - DTsmt
Measurmnts	|	is blank  	|	Matrix    	          	          	          	          	          	          	          	          	          	|	Matrix    	|	Matrix    
 1.800E+03	|	          	|	 0.000E+00	 0.000E+00	 0.000E+00	 0.000E+00	 0.000E+00	 4.122E+02	 0.000E+00	 0.000E+00	 0.000E+00	 0.000E+00	|	 0.000E+00	|	 0.000E+00


--------- Azimuth = 110.00 deg (with respect to AzimB1Up =   0.00 deg) ---------
op State  	|	op        	|	A - State 	          	          	          	          	          	          	          	          	          	|	B - Input 	|	Bd - Dstrb